# 
# Created by GaussView 5.0.9
#

#
#

@<TRIPOS>MOLECULE
Molecule Name
10 9
SMALL
NO_CHARGES


@<TRIPOS>ATOM
1 C1     2.8074     0.5340     0.0000 C
2 H2     3.1641    -0.4748     0.0000 H
3 H3     3.1641     1.0384    -0.8737 H
4 C4     3.3208     1.2599     1.2574 C
5 N5     1.3374     0.5340     0.0000 N
6 H6     1.0041     1.0070    -0.8156 H
7 H7     1.0041    -0.4088    -0.0018 H
8 O8     2.8463     2.6089     1.2561 O
9 H9     3.3367     3.1218     1.9026 H
10 O10     4.7508     1.2577     1.2587 O
@<TRIPOS>BOND
1 1 2 1
2 1 3 1
3 1 4 1
4 1 5 1
5 4 8 1
6 4 10 1
7 5 6 1
8 5 7 1
9 8 9 1
